Circuit: * C:\Users\PRANAV ARYA\Desktop\labsub\4_mux.asc

WARNING: Node NC_01 is floating.
WARNING: Node NC_02 is floating.
WARNING: Node NC_03 is floating.

WARNING: Less than two connections to node OUT.  This node is used by A:X3:9.
WARNING: Less than two connections to node NC_01.  This node is used by V3.
WARNING: Less than two connections to node NC_02.  This node is used by V4.
WARNING: Less than two connections to node NC_03.  This node is used by V5.
WARNING: Less than two connections to node NC_04.  This node is used by V6.
Direct Newton iteration for .op point succeeded.

Date: Sat Feb 05 23:02:09 2022
Total elapsed time: 0.035 seconds.

tnom = 27
temp = 27
method = modified trap
totiter = 2880
traniter = 2870
tranpoints = 1350
accept = 1328
rejected = 22
matrix size = 42
fillins = 3
solver = Normal
Matrix Compiler1: 866 bytes object code size  0.2/0.1/[0.1]
Matrix Compiler2: off  [0.1]/0.2/0.1

