Circuit: * C:\Users\PRANAV ARYA\Desktop\lab\Draft3.asc

Limiting rise time of source v1 to 1
Limiting fall time of source v1 to 1
Direct Newton iteration for .op point succeeded.
Ignoring empty pin current: Ix(x1:d)
Ignoring empty pin current: Ix(x2:d)
Ignoring empty pin current: Ix(x3:d)
Ignoring empty pin current: Ix(x4:d)
Ignoring empty pin current: Ix(x1:d)
Ignoring empty pin current: Ix(x2:d)
Ignoring empty pin current: Ix(x3:d)
Ignoring empty pin current: Ix(x4:d)

Date: Sat Feb 12 19:12:21 2022
Total elapsed time: 0.139 seconds.

tnom = 27
temp = 27
method = modified trap
totiter = 14441
traniter = 14436
tranpoints = 4819
accept = 3833
rejected = 986
matrix size = 48
fillins = 0
solver = Normal
Matrix Compiler1: 680 bytes object code size  0.2/0.2/[0.1]
Matrix Compiler2: 1.85 KB object code size  0.2/0.4/[0.2]

