Circuit: * C:\Users\PRANAV ARYA\Desktop\labsub\Draft2.asc

Limiting rise time of source v3 to 1
Limiting fall time of source v3 to 1
Limiting rise time of source v2 to 4
Limiting fall time of source v2 to 4
Limiting rise time of source v1 to 2
Limiting fall time of source v1 to 2
WARNING: Less than two connections to node OUT.  This node is used by A3.
Direct Newton iteration for .op point succeeded.

Date: Sat Feb 12 11:31:12 2022
Total elapsed time: 0.164 seconds.

tnom = 27
temp = 27
method = modified trap
totiter = 6043
traniter = 6040
tranpoints = 2469
accept = 2123
rejected = 346
matrix size = 10
fillins = 0
solver = Normal
Matrix Compiler1: 184 bytes object code size  0.1/0.1/[0.1]
Matrix Compiler2: 436 bytes object code size  0.1/0.1/[0.1]

