Circuit: * C:\Users\PRANAV ARYA\Desktop\lab\Draft2.asc

Limiting rise time of source v2 to 2
Limiting fall time of source v2 to 2
Limiting rise time of source v1 to 1
Limiting fall time of source v1 to 1
WARNING: Less than two connections to node QINV.  This node is used by A1.
Direct Newton iteration for .op point succeeded.
Ignoring empty pin current: Ix(x1:b)
Ignoring empty pin current: Ix(x2:b)
Ignoring empty pin current: Ix(x1:b)
Ignoring empty pin current: Ix(x2:b)

Date: Sat Feb 12 13:06:40 2022
Total elapsed time: 0.048 seconds.

tnom = 27
temp = 27
method = modified trap
totiter = 4227
traniter = 4224
tranpoints = 1689
accept = 1519
rejected = 170
matrix size = 13
fillins = 0
solver = Normal
Matrix Compiler1: 208 bytes object code size  0.1/0.1/[0.1]
Matrix Compiler2: 539 bytes object code size  0.1/0.1/[0.1]

