Circuit: * C:\Users\PRANAV ARYA\Desktop\labsub\Draft4.asc

WARNING: Less than two connections to node BOUT.  This node is used by A1.
WARNING: Less than two connections to node DIFF.  This node is used by A:X2:2.
Direct Newton iteration for .op point succeeded.

Date: Sat Feb 05 20:24:11 2022
Total elapsed time: 0.071 seconds.

tnom = 27
temp = 27
method = modified trap
totiter = 3215
traniter = 3212
tranpoints = 1576
accept = 1566
rejected = 10
matrix size = 13
fillins = 0
solver = Normal
Matrix Compiler1: 226 bytes object code size  0.1/0.0/[0.0]
Matrix Compiler2: 553 bytes object code size  0.1/0.1/[0.0]

