Circuit: * C:\Users\PRANAV ARYA\Desktop\labsub\Draft6.asc

WARNING: Less than two connections to node OUT.  This node is used by A6.
Direct Newton iteration for .op point succeeded.

Date: Sat Feb 05 21:11:13 2022
Total elapsed time: 0.110 seconds.

tnom = 27
temp = 27
method = modified trap
totiter = 2621
traniter = 2615
tranpoints = 1295
accept = 1290
rejected = 5
matrix size = 15
fillins = 0
solver = Normal
Matrix Compiler1: 254 bytes object code size  0.4/0.3/[0.2]
Matrix Compiler2: 631 bytes object code size  0.3/0.6/[0.2]

