Circuit: * C:\Users\PRANAV ARYA\Desktop\lab\Draft4.asc

Limiting rise time of source v1 to 0.5
Limiting fall time of source v1 to 0.5
Direct Newton iteration for .op point succeeded.
Ignoring empty pin current: Ix(x1:d)
Ignoring empty pin current: Ix(x2:d)
Ignoring empty pin current: Ix(x3:d)
Ignoring empty pin current: Ix(x1:d)
Ignoring empty pin current: Ix(x2:d)
Ignoring empty pin current: Ix(x3:d)

Date: Sat Feb 12 23:29:17 2022
Total elapsed time: 0.084 seconds.

tnom = 27
temp = 27
method = modified trap
totiter = 12325
traniter = 12318
tranpoints = 4289
accept = 3446
rejected = 843
matrix size = 38
fillins = 0
solver = Normal
Matrix Compiler1: 540 bytes object code size  0.1/0.1/[0.1]
Matrix Compiler2: 1.46 KB object code size  0.1/0.2/[0.1]

