Circuit: * C:\Users\PRANAV ARYA\Desktop\labsub\Draft3.asc

Fatal Error: This circuit does not contain a node other than node "0" (GND)
