Circuit: * C:\Users\PRANAV ARYA\Desktop\lab\multiplier-signed.asc

WARNING: Node NC_01 is floating.

WARNING: Less than two connections to node P0.  This node is used by A1.
WARNING: Less than two connections to node P1.  This node is used by A:X1:4.
WARNING: Less than two connections to node P2.  This node is used by A:X5:4.
WARNING: Less than two connections to node P3.  This node is used by A:X9:4.
WARNING: Less than two connections to node P4.  This node is used by A:X10:X2:4.
WARNING: Less than two connections to node P5.  This node is used by A:X11:X2:4.
WARNING: Less than two connections to node P6.  This node is used by A:X12:X2:4.
WARNING: Less than two connections to node NC_01.  This node is used by V9.
WARNING: Less than two connections to node P7.  This node is used by A:X13:4.
WARNING: Less than two connections to node NC_02.  This node is used by A:X13:5.
Direct Newton iteration for .op point succeeded.
Ignoring empty pin current: Ix(x1:b)
Ignoring empty pin current: Ix(x2:b)
Ignoring empty pin current: Ix(x2:cin)
Ignoring empty pin current: Ix(x3:b)
Ignoring empty pin current: Ix(x3:cin)
Ignoring empty pin current: Ix(x5:b)
Ignoring empty pin current: Ix(x6:b)
Ignoring empty pin current: Ix(x6:cin)
Ignoring empty pin current: Ix(x7:b)
Ignoring empty pin current: Ix(x7:cin)
Ignoring empty pin current: Ix(x9:b)
Ignoring empty pin current: Ix(x10:b)
Ignoring empty pin current: Ix(x10:cin)
Ignoring empty pin current: Ix(x11:b)
Ignoring empty pin current: Ix(x11:cin)
Ignoring empty pin current: Ix(x12:b)
Ignoring empty pin current: Ix(x12:cin)
Ignoring empty pin current: Ix(x8:b)
Ignoring empty pin current: Ix(x8:cin)
Ignoring empty pin current: Ix(x4:b)
Ignoring empty pin current: Ix(x4:cin)
Ignoring empty pin current: Ix(x13:b)
Ignoring empty pin current: Ix(x1:b)
Ignoring empty pin current: Ix(x2:b)
Ignoring empty pin current: Ix(x2:cin)
Ignoring empty pin current: Ix(x3:b)
Ignoring empty pin current: Ix(x3:cin)
Ignoring empty pin current: Ix(x5:b)
Ignoring empty pin current: Ix(x6:b)
Ignoring empty pin current: Ix(x6:cin)
Ignoring empty pin current: Ix(x7:b)
Ignoring empty pin current: Ix(x7:cin)
Ignoring empty pin current: Ix(x9:b)
Ignoring empty pin current: Ix(x10:b)
Ignoring empty pin current: Ix(x10:cin)
Ignoring empty pin current: Ix(x11:b)
Ignoring empty pin current: Ix(x11:cin)
Ignoring empty pin current: Ix(x12:b)
Ignoring empty pin current: Ix(x12:cin)
Ignoring empty pin current: Ix(x8:b)
Ignoring empty pin current: Ix(x8:cin)
Ignoring empty pin current: Ix(x4:b)
Ignoring empty pin current: Ix(x4:cin)
Ignoring empty pin current: Ix(x13:b)

Date: Sun Feb 20 16:15:40 2022
Total elapsed time: 0.303 seconds.

tnom = 27
temp = 27
method = modified trap
totiter = 2127
traniter = 2098
tranpoints = 1050
accept = 1050
rejected = 0
matrix size = 154
fillins = 1
solver = Normal
Thread vector: 9.2/5.1[8] 3.5/2.5[7] 2.2/1.7[4] 0.2/0.8[1]  2592/500
Matrix Compiler1: 2.31 KB object code size  1.0/0.7/[0.4]
Matrix Compiler2: 6.04 KB object code size  1.2/1.5/[0.7]

