Circuit: * C:\Users\PRANAV ARYA\Desktop\lab\perceptron.asc

WARNING: Less than two connections to node OUT1.  This node is used by A:X2:X2:4.
WARNING: Less than two connections to node OUT0.  This node is used by A:X5:X2:4.
WARNING: Less than two connections to node OUT2.  This node is used by A:X6:X2:4.
WARNING: Less than two connections to node OUT3.  This node is used by A:X7:X2:4.
WARNING: Less than two connections to node OUT4.  This node is used by A:X7:1.
Direct Newton iteration for .op point succeeded.
Ignoring empty pin current: Ix(x1:b)
Ignoring empty pin current: Ix(x2:b)
Ignoring empty pin current: Ix(x2:cin)
Ignoring empty pin current: Ix(x5:b)
Ignoring empty pin current: Ix(x5:cin)
Ignoring empty pin current: Ix(x6:b)
Ignoring empty pin current: Ix(x6:cin)
Ignoring empty pin current: Ix(x7:b)
Ignoring empty pin current: Ix(x7:cin)
Ignoring empty pin current: Ix(x1:b)
Ignoring empty pin current: Ix(x2:b)
Ignoring empty pin current: Ix(x2:cin)
Ignoring empty pin current: Ix(x5:b)
Ignoring empty pin current: Ix(x5:cin)
Ignoring empty pin current: Ix(x6:b)
Ignoring empty pin current: Ix(x6:cin)
Ignoring empty pin current: Ix(x7:b)
Ignoring empty pin current: Ix(x7:cin)

Date: Wed Feb 23 14:35:37 2022
Total elapsed time: 0.235 seconds.

tnom = 27
temp = 27
method = modified trap
totiter = 2122
traniter = 2106
tranpoints = 1050
accept = 1050
rejected = 0
matrix size = 73
fillins = 0
solver = Normal
Matrix Compiler1: 1.09 KB object code size  1.2/0.9/[0.4]
Matrix Compiler2: 2.87 KB object code size  1.2/1.9/[0.9]

