Circuit: * C:\Users\PRANAV ARYA\Desktop\labsub\srlatch.asc

WARNING: Less than two connections to node U8.  This node is used by A4.
Direct Newton iteration failed to find .op point.  (Use ".option noopiter" to skip.)
Starting Gmin stepping
Gmin = 10
Gmin = 1.07374
vernier = 0.5
vernier = 0.25
vernier = 0.125
vernier = 0.0625
Gmin = 0.995033
vernier = 0.03125
vernier = 0.015625
vernier = 0.0078125
vernier = 0.00390625
Gmin = 0.999816
vernier = 0.00195313
vernier = 0.000976563
vernier = 0.000488281
Gmin = 0
Gmin stepping failed

Starting source stepping with srcstepmethod=0
Could not converge to DC with sources off!
Starting source stepping with srcstepmethod=1
Could not converge to DC with sources off!
Pseudo Transient failed in finding the operating point at 4 ms.
Trouble finding operating point....skipping operating point for Transient analysis.
to 2e-008

Date: Sun Jan 23 14:33:33 2022
Total elapsed time: 2.398 seconds.

tnom = 27
temp = 27
method = modified trap
totiter = 860263
traniter = 848911
tranpoints = 424452
accept = 311907
rejected = 112838
matrix size = 9
fillins = 0
solver = Normal
Matrix Compiler1: 152 bytes object code size  0.0/0.0/[0.0]
Matrix Compiler2: off  [0.0]/0.1/0.1

